@<TRIPOS>MOLECULE
*****
 40 42 0 0 0
SMALL
GASTEIGER

@<TRIPOS>ATOM
      1 C           1.1753    0.3660    0.0151 C.3     1  UNL1       -0.0485
      2 C           1.1518   -0.9402   -0.7883 C.3     1  UNL1        0.0176
      3 C           0.2716   -2.0615   -0.1427 C.3     1  UNL1        0.0146
      4 N           0.9355   -3.0730    0.6803 N.3     1  UNL1       -0.2913
      5 C           0.0935   -4.2607    0.9464 C.3     1  UNL1        0.0763
      6 C          -0.4556   -4.9871   -0.3105 C.2     1  UNL1        0.2339
      7 O           0.3006   -5.2642   -1.2494 O.2     1  UNL1       -0.2738
      8 N          -1.7547   -5.4639   -0.3306 N.am    1  UNL1       -0.2697
      9 C          -2.1038   -6.5378   -1.2687 C.3     1  UNL1        0.0239
     10 C          -3.4666   -7.1021   -0.8496 C.3     1  UNL1       -0.0097
     11 C          -3.8753   -6.1289    0.2123 C.ar    1  UNL1       -0.0244
     12 C          -5.0737   -6.1348    0.9221 C.ar    1  UNL1       -0.0554
     13 C          -5.3068   -5.0944    1.8206 C.ar    1  UNL1       -0.0430
     14 C          -4.3744   -4.0523    1.9490 C.ar    1  UNL1        0.0428
     15 C          -3.1649   -4.0728    1.2474 C.ar    1  UNL1       -0.0217
     16 C          -2.8924   -5.1523    0.4244 C.ar    1  UNL1        0.0409
     17 C           2.2788   -3.4297    0.2003 C.3     1  UNL1        0.0120
     18 C           3.1415   -2.2114   -0.1810 C.3     1  UNL1        0.0090
     19 N           2.5269   -1.3142   -1.1715 N.3     1  UNL1       -0.3111
     20 CL         -4.7338   -2.7229    2.9795 Cl      1  UNL1       -0.0835
     21 H           0.2785    0.4873    0.6291 H       1  UNL1        0.0245
     22 H           1.2050    1.2155   -0.6775 H       1  UNL1        0.0245
     23 H           2.0490    0.4497    0.6677 H       1  UNL1        0.0245
     24 H           0.6413   -0.6863   -1.7289 H       1  UNL1        0.0470
     25 H          -0.5128   -1.5976    0.4632 H       1  UNL1        0.0442
     26 H          -0.2421   -2.5543   -0.9806 H       1  UNL1        0.0442
     27 H           0.6782   -5.0140    1.4995 H       1  UNL1        0.0522
     28 H          -0.6877   -3.9739    1.6480 H       1  UNL1        0.0522
     29 H          -2.1474   -6.1140   -2.2828 H       1  UNL1        0.0472
     30 H          -1.3304   -7.3147   -1.2648 H       1  UNL1        0.0472
     31 H          -4.1652   -7.1019   -1.6840 H       1  UNL1        0.0329
     32 H          -3.3738   -8.1140   -0.4391 H       1  UNL1        0.0329
     33 H          -5.8001   -6.9277    0.7913 H       1  UNL1        0.0621
     34 H          -6.2270   -5.0783    2.3976 H       1  UNL1        0.0632
     35 H          -2.5012   -3.2215    1.3255 H       1  UNL1        0.0651
     36 H           2.8041   -3.9732    0.9954 H       1  UNL1        0.0439
     37 H           2.2374   -4.0956   -0.6648 H       1  UNL1        0.0439
     38 H           3.4140   -1.6466    0.7176 H       1  UNL1        0.0437
     39 H           4.0833   -2.5808   -0.6052 H       1  UNL1        0.0437
     40 H           2.4852   -1.8158   -2.0595 H       1  UNL1        0.1223
@<TRIPOS>BOND
     1     1     2    1
     2     2     3    1
     3     2    19    1
     4     3     4    1
     5     4     5    1
     6     4    17    1
     7     5     6    1
     8     6     7    2
     9     6     8   am
    10     8     9    1
    11     8    16    1
    12     9    10    1
    13    10    11    1
    14    11    12   ar
    15    11    16   ar
    16    12    13   ar
    17    13    14   ar
    18    14    15   ar
    19    14    20    1
    20    15    16   ar
    21    17    18    1
    22    18    19    1
    23     1    21    1
    24     1    22    1
    25     1    23    1
    26     2    24    1
    27     3    25    1
    28     3    26    1
    29     5    27    1
    30     5    28    1
    31     9    29    1
    32     9    30    1
    33    10    31    1
    34    10    32    1
    35    12    33    1
    36    13    34    1
    37    15    35    1
    38    17    36    1
    39    17    37    1
    40    18    38    1
    41    18    39    1
    42    19    40    1
